
Version, 8.1;

Timestep, 6;

ShadowCalculation,
 AverageOverDaysInFrequency,        !- Calculation Method
 30,        !- Calculation Frequency
 3000;    !- Maximum Figures in Shadow Overlap Calculation

ProgramControl,
 10; !- Number of Threads AllowedNumber

Building,
 simRun.idf, !- Name
 0.0, !- North Axis {deg}
 City, !- Terrain
 0.040000000000000001, !- Loads Convergence Tolerance Value
 0.40000000000000002, !- Temperature Convergence Tolerance Value {deltaC}
 FullExterior, !- Solar Distribution or maybe FullExterior
 25, !- Maximum Number of Warmup Days
 6; !- Minimum Number of Warmup Days

HeatBalanceAlgorithm, ConductionTransferFunction;

SurfaceConvectionAlgorithm:Inside, TARP;

SurfaceConvectionAlgorithm:Outside, DOE-2;

Site:Location,
 New York J F Kennedy IntL Ar USA,
 40.65,    !Latitude
 -73.80,   !Longitude
 -5.0, !Time Zone
 5.0;   !Elevation

SimulationControl,
 Yes,    !- Do Zone Sizing Calculation
 Yes,  !- Do System Sizing Calculation
 Yes,   !- Do Plant Sizing Calculation
 No,  !- Run Simulation for Sizing Periods
 Yes; !- Run Simulation for Weather File Run Periods

RunPeriod,
 customRun,    !- Name
 1,   !- Begin Month
 1,    !- Begin Day of Month
 12, !- End Month
 31,   !- End Day of Month
 UseWeatherFile,   !- Day of Week for Start Day
 Yes,              !- Use Weather File Holidays and Special Days
 Yes,              !- Use Weather File Daylight Saving Period
 No,               !- Apply Weekend Holiday Rule
 Yes,              !- Use Weather File Rain Indicators
 Yes;              !- Use Weather File Snow Indicators
ScheduleTypeLimits,
  Always On Discrete Limits,   !- name
  0,   !- - Lower Limit Value {BasedOnField A3}
  1,   !- - Upper Limit Value {BasedOnField A3}
  Discrete,   !- - Numeric Type
  availability;   !- - Unit Type

ScheduleTypeLimits,
  Fraction,   !- name
  0,   !- - Lower Limit Value {BasedOnField A3}
  1,   !- - Upper Limit Value {BasedOnField A3}
  CONTINUOUS;   !- - Numeric Type

ScheduleTypeLimits,
  Temperature 26,   !- name
  ,   !- - Lower Limit Value {BasedOnField A3}
  ,   !- - Upper Limit Value {BasedOnField A3}
  Continuous,   !- - Numeric Type
  temperature;   !- - Unit Type

ScheduleTypeLimits,
  Temperature 23,   !- name
  ,   !- - Lower Limit Value {BasedOnField A3}
  ,   !- - Upper Limit Value {BasedOnField A3}
  Continuous,   !- - Numeric Type
  temperature;   !- - Unit Type

ScheduleTypeLimits,
  ActivityLevel 9,   !- name
  0,   !- - Lower Limit Value {BasedOnField A3}
  ,   !- - Upper Limit Value {BasedOnField A3}
  Continuous,   !- - Numeric Type
  activitylevel;   !- - Unit Type

ScheduleTypeLimits,
  Temperature 14,   !- name
  ,   !- - Lower Limit Value {BasedOnField A3}
  ,   !- - Upper Limit Value {BasedOnField A3}
  Continuous,   !- - Numeric Type
  temperature;   !- - Unit Type

ScheduleTypeLimits,
  Temperature 8,   !- name
  ,   !- - Lower Limit Value {BasedOnField A3}
  ,   !- - Upper Limit Value {BasedOnField A3}
  Continuous,   !- - Numeric Type
  temperature;   !- - Unit Type

ScheduleTypeLimits,
  Fractional,   !- name
  0,   !- - Lower Limit Value {BasedOnField A3}
  1,   !- - Upper Limit Value {BasedOnField A3}
  Continuous;   !- - Numeric Type

ScheduleTypeLimits,
  Temperature 1,   !- name
  ,   !- - Lower Limit Value {BasedOnField A3}
  ,   !- - Upper Limit Value {BasedOnField A3}
  Continuous,   !- - Numeric Type
  temperature;   !- - Unit Type

ScheduleTypeLimits,
  Temperature 2,   !- name
  ,   !- - Lower Limit Value {BasedOnField A3}
  ,   !- - Upper Limit Value {BasedOnField A3}
  Continuous,   !- - Numeric Type
  temperature;   !- - Unit Type

ScheduleTypeLimits,
  Temperature 3,   !- name
  ,   !- - Lower Limit Value {BasedOnField A3}
  ,   !- - Upper Limit Value {BasedOnField A3}
  Continuous,   !- - Numeric Type
  temperature;   !- - Unit Type

ScheduleTypeLimits,
  Temperature 11,   !- name
  ,   !- - Lower Limit Value {BasedOnField A3}
  ,   !- - Upper Limit Value {BasedOnField A3}
  Continuous,   !- - Numeric Type
  temperature;   !- - Unit Type

ScheduleTypeLimits,
  ActivityLevel,   !- name
  0,   !- - Lower Limit Value {BasedOnField A3}
  ,   !- - Upper Limit Value {BasedOnField A3}
  Continuous,   !- - Numeric Type
  activitylevel;   !- - Unit Type

ScheduleTypeLimits,
  Temperature 4,   !- name
  ,   !- - Lower Limit Value {BasedOnField A3}
  ,   !- - Upper Limit Value {BasedOnField A3}
  Continuous,   !- - Numeric Type
  temperature;   !- - Unit Type

ScheduleTypeLimits,
  Temperature 5,   !- name
  ,   !- - Lower Limit Value {BasedOnField A3}
  ,   !- - Upper Limit Value {BasedOnField A3}
  Continuous,   !- - Numeric Type
  temperature;   !- - Unit Type

ScheduleTypeLimits,
  Temperature 6,   !- name
  ,   !- - Lower Limit Value {BasedOnField A3}
  ,   !- - Upper Limit Value {BasedOnField A3}
  Continuous,   !- - Numeric Type
  temperature;   !- - Unit Type

ScheduleTypeLimits,
  Temperature 7,   !- name
  ,   !- - Lower Limit Value {BasedOnField A3}
  ,   !- - Upper Limit Value {BasedOnField A3}
  Continuous,   !- - Numeric Type
  temperature;   !- - Unit Type


GlobalGeometryRules,
 LowerLeftCorner,         !- Starting Vertex Position
 CounterClockWise,        !- Vertex Entry Direction
 Absolute;                !- Coordinate System

Shading:Building:Detailed,
 shdSrf_0_0_0, !- Name
 , !- Transmittance Schedule Name
 4, !- Number of Vertices
 6.712061405181885,
 -2.1019744873046875,
 0.79163426160812378,
 6.325806140899658,
 -1.4962830543518066,
 0.79163426160812378,
 6.99915885925293,
 -1.8464199304580688,
 3.3214564323425293,
 7.385414123535156,
 -2.45211124420166,
 3.3214564323425293;


Shading:Building:Detailed,
 shdSrf_1_0_0, !- Name
 , !- Transmittance Schedule Name
 4, !- Number of Vertices
 7.356997013092041,
 -0.86168831586837769,
 0.79163426160812378,
 6.9707417488098145,
 -0.2559969425201416,
 0.79163426160812378,
 7.644094944000244,
 -0.60613369941711426,
 3.3214564323425293,
 8.030349731445313,
 -1.2118251323699951,
 3.3214564323425293;


Shading:Building:Detailed,
 shdSrf_2_0_0, !- Name
 , !- Transmittance Schedule Name
 4, !- Number of Vertices
 8.672630310058594,
 0.029841907322406769,
 3.3114795684814453,
 8.286375045776367,
 0.63553327322006226,
 3.3114795684814453,
 8.289031028747559,
 0.63415247201919556,
 3.3214564323425293,
 8.675286293029785,
 0.028461091220378876,
 3.3214564323425293;


Shading:Building:Detailed,
 shdSrf_3_0_0, !- Name
 , !- Transmittance Schedule Name
 4, !- Number of Vertices
 2.1850802898406982,
 0.6899721622467041,
 0.79163426160812378,
 2.424304246902466,
 0.70052582025527954,
 0.79163426160812378,
 1.7509512901306152,
 1.050662636756897,
 3.3214564323425293,
 1.5117274522781372,
 1.0401089191436768,
 3.3214564323425293;


Shading:Building:Detailed,
 shdSrf_4_0_0, !- Name
 , !- Transmittance Schedule Name
 4, !- Number of Vertices
 2.8300161361694336,
 1.9302582740783691,
 0.79163426160812378,
 3.069240093231201,
 1.9408119916915894,
 0.79163426160812378,
 2.3958871364593506,
 2.2909488677978516,
 3.3214564323425293,
 2.156663179397583,
 2.280395030975342,
 3.3214564323425293;


Shading:Building:Detailed,
 shdSrf_5_0_0, !- Name
 , !- Transmittance Schedule Name
 4, !- Number of Vertices
 7.6552605628967285,
 -2.8775696754455566,
 4.773777961730957,
 7.269005298614502,
 -2.271878242492676,
 4.773777961730957,
 7.942358493804932,
 -2.6220149993896484,
 7.303599834442139,
 8.32861328125,
 -3.2277064323425293,
 7.303599834442139;


Shading:Building:Detailed,
 shdSrf_6_0_0, !- Name
 , !- Transmittance Schedule Name
 4, !- Number of Vertices
 8.53361988067627,
 -1.1883822679519653,
 4.773777961730957,
 8.147365570068359,
 -0.58269095420837402,
 4.773777961730957,
 8.820717811584473,
 -0.93282771110534668,
 7.303599834442139,
 9.206973075866699,
 -1.538519024848938,
 7.303599834442139;


Shading:Building:Detailed,
 shdSrf_7_0_0, !- Name
 , !- Transmittance Schedule Name
 4, !- Number of Vertices
 10.082674980163574,
 0.15205051004886627,
 7.293612480163574,
 9.696419715881348,
 0.75774186849594116,
 7.293612480163574,
 9.699077606201172,
 0.75635957717895508,
 7.303599834442139,
 10.085332870483398,
 0.15066820383071899,
 7.303599834442139;


Shading:Building:Detailed,
 shdSrf_8_0_0, !- Name
 , !- Transmittance Schedule Name
 4, !- Number of Vertices
 1.008455753326416,
 1.0166633129119873,
 4.773777961730957,
 1.2476797103881836,
 1.027216911315918,
 4.773777961730957,
 0.57432669401168823,
 1.3773537874221802,
 7.303599834442139,
 0.33510279655456543,
 1.36680006980896,
 7.303599834442139;


Shading:Building:Detailed,
 shdSrf_9_0_0, !- Name
 , !- Transmittance Schedule Name
 4, !- Number of Vertices
 1.8868155479431152,
 2.705850601196289,
 4.773777961730957,
 2.1260392665863037,
 2.7164041996002197,
 4.773777961730957,
 1.4526864290237427,
 3.0665409564971924,
 7.303599834442139,
 1.213462471961975,
 3.0559873580932617,
 7.303599834442139;


Shading:Building:Detailed,
 shdSrf_10_0_0, !- Name
 , !- Transmittance Schedule Name
 4, !- Number of Vertices
 8.600741386413574,
 -3.654350519180298,
 8.764492034912109,
 8.214486122131348,
 -3.048659086227417,
 8.764492034912109,
 8.887839317321777,
 -3.3987958431243896,
 11.294314384460449,
 9.274094581604004,
 -4.004487037658691,
 11.294314384460449;


Shading:Building:Detailed,
 shdSrf_11_0_0, !- Name
 , !- Transmittance Schedule Name
 4, !- Number of Vertices
 9.712525367736816,
 -1.5162614583969116,
 8.764492034912109,
 9.32627010345459,
 -0.91057014465332031,
 8.764492034912109,
 9.99962329864502,
 -1.260706901550293,
 11.294314384460449,
 10.385878562927246,
 -1.8663983345031738,
 11.294314384460449;


Shading:Building:Detailed,
 shdSrf_12_0_0, !- Name
 , !- Transmittance Schedule Name
 4, !- Number of Vertices
 11.495002746582031,
 0.27307358384132385,
 11.284322738647461,
 11.108747482299805,
 0.87876492738723755,
 11.284322738647461,
 11.111407279968262,
 0.87738198041915894,
 11.294314384460449,
 11.497662544250488,
 0.27169063687324524,
 11.294314384460449;


Shading:Building:Detailed,
 shdSrf_13_0_0, !- Name
 , !- Transmittance Schedule Name
 4, !- Number of Vertices
 -0.17044991254806519,
 1.3445411920547485,
 8.764492034912109,
 0.06877397745847702,
 1.3550949096679688,
 8.764492034912109,
 -0.60457897186279297,
 1.7052316665649414,
 11.294314384460449,
 -0.84380286931991577,
 1.6946780681610107,
 11.294314384460449;


Shading:Building:Detailed,
 shdSrf_14_0_0, !- Name
 , !- Transmittance Schedule Name
 4, !- Number of Vertices
 0.94133394956588745,
 3.4826302528381348,
 8.764492034912109,
 1.1805578470230103,
 3.4931838512420654,
 8.764492034912109,
 0.50720489025115967,
 3.843320608139038,
 11.294314384460449,
 0.26798099279403687,
 3.8327670097351074,
 11.294314384460449;


Shading:Building:Detailed,
 shdSrf_15_0_0, !- Name
 , !- Transmittance Schedule Name
 4, !- Number of Vertices
 9.547179222106934,
 -4.431628704071045,
 12.758801460266113,
 9.160923957824707,
 -3.825937271118164,
 12.758801460266113,
 9.834277153015137,
 -4.176074028015137,
 15.288623809814453,
 10.220532417297363,
 -4.781765460968018,
 15.288623809814453;


Shading:Building:Detailed,
 shdSrf_16_0_0, !- Name
 , !- Transmittance Schedule Name
 4, !- Number of Vertices
 10.892387390136719,
 -1.8446377515792847,
 12.758801460266113,
 10.506132125854492,
 -1.2389464378356934,
 12.758801460266113,
 11.179485321044922,
 -1.589083194732666,
 15.288623809814453,
 11.565740585327148,
 -2.194774627685547,
 15.288623809814453;


Shading:Building:Detailed,
 shdSrf_17_0_0, !- Name
 , !- Transmittance Schedule Name
 4, !- Number of Vertices
 12.90828800201416,
 0.39359951019287109,
 15.278629302978516,
 12.522032737731934,
 0.99929088354110718,
 15.278629302978516,
 12.524693489074707,
 0.99790757894515991,
 15.288623809814453,
 12.910948753356934,
 0.39221620559692383,
 15.288623809814453;


Shading:Building:Detailed,
 shdSrf_18_0_0, !- Name
 , !- Transmittance Schedule Name
 4, !- Number of Vertices
 -1.3503122329711914,
 1.6729168891906738,
 12.758801460266113,
 -1.1110882759094238,
 1.6834704875946045,
 12.758801460266113,
 -1.7844412326812744,
 2.033607244491577,
 15.288623809814453,
 -2.023665189743042,
 2.0230536460876465,
 15.288623809814453;


Shading:Building:Detailed,
 shdSrf_19_0_0, !- Name
 , !- Transmittance Schedule Name
 4, !- Number of Vertices
 -0.0051040328107774258,
 4.2599077224731445,
 12.758801460266113,
 0.23411986231803894,
 4.270461082458496,
 12.758801460266113,
 -0.43923312425613403,
 4.620597839355469,
 15.288623809814453,
 -0.67845702171325684,
 4.610044479370117,
 15.288623809814453;


Shading:Building:Detailed,
 shdSrf_20_0_0, !- Name
 , !- Transmittance Schedule Name
 4, !- Number of Vertices
 10.494108200073242,
 -5.20916223526001,
 16.754955291748047,
 10.107852935791016,
 -4.603470802307129,
 16.754955291748047,
 10.781206130981445,
 -4.953607559204102,
 19.284778594970703,
 11.167461395263672,
 -5.559298992156982,
 19.284778594970703;


Shading:Building:Detailed,
 shdSrf_21_0_0, !- Name
 , !- Transmittance Schedule Name
 4, !- Number of Vertices
 12.07274055480957,
 -2.173269271850586,
 16.754955291748047,
 11.686485290527344,
 -1.5675779581069946,
 16.754955291748047,
 12.359838485717773,
 -1.9177147150039673,
 19.284778594970703,
 12.74609375,
 -2.5234060287475586,
 19.284778594970703;


Shading:Building:Detailed,
 shdSrf_22_0_0, !- Name
 , !- Transmittance Schedule Name
 4, !- Number of Vertices
 14.322065353393555,
 0.51387006044387817,
 19.274782180786133,
 13.935810089111328,
 1.1195614337921143,
 19.274782180786133,
 13.938470840454102,
 1.118177890777588,
 19.284778594970703,
 14.324726104736328,
 0.51248657703399658,
 19.284778594970703;


Shading:Building:Detailed,
 shdSrf_23_0_0, !- Name
 , !- Transmittance Schedule Name
 4, !- Number of Vertices
 -2.530665636062622,
 2.0015480518341064,
 16.754955291748047,
 -2.2914416790008545,
 2.012101650238037,
 16.754955291748047,
 -2.964794874191284,
 2.3622384071350098,
 19.284778594970703,
 -3.2040185928344727,
 2.351684808731079,
 19.284778594970703;


Shading:Building:Detailed,
 shdSrf_24_0_0, !- Name
 , !- Transmittance Schedule Name
 4, !- Number of Vertices
 -0.95203322172164917,
 5.037440776824951,
 16.754955291748047,
 -0.71280932426452637,
 5.047994136810303,
 16.754955291748047,
 -1.386162281036377,
 5.398131370544434,
 19.284778594970703,
 -1.6253862380981445,
 5.387577533721924,
 19.284778594970703;


Zone,
 0_0,
 0, !-Direction of Relative North {deg}
 0.0, !- X Origin {m}
 0.0, !- Y Origin {m}
 0.0, !- Z Origin {m}
 1; !- Type

BuildingSurface:Detailed,
 0_0_0, !- Name
 CEILING, !- Surface Type
 000 Interior Ceiling, !- Construction Name
 0_0, !- Zone Name
 SURFACE, !- Outside Boundary Condition
 1_0_0, !- Outside Boundary Condition Object
 NoSun, !- Sun Exposure
 NoWind, !- Wind Exposure
 autocalculate, !- View Factor to Ground
 4, !- Number of Vertices
 0.38280221819877625,
 -1.1392083168029785,
 4.0,
 6.061014175415039,
 -4.0918192863464355,
 4.0,
 9.013625144958496,
 1.5863926410675049,
 4.0,
 3.3354129791259766,
 4.539003372192383,
 4.0;


BuildingSurface:Detailed,
 0_0_1, !- Name
 FLOOR, !- Surface Type
 ASHRAE 90.1-2004 AtticFloor ClimateZone 1-5, !- Construction Name
 0_0, !- Zone Name
 GROUND, !- Outside Boundary Condition
 , !- Outside Boundary Condition Object
 NoSun, !- Sun Exposure
 NoWind, !- Wind Exposure
 autocalculate, !- View Factor to Ground
 4, !- Number of Vertices
 2.0010814666748047,
 -0.62815815210342407,
 0.0,
 3.846463203430176,
 2.9207241535186768,
 0.0,
 7.395345687866211,
 1.0753425359725952,
 0.0,
 5.54996395111084,
 -2.4735398292541504,
 0.0;


BuildingSurface:Detailed,
 0_0_2, !- Name
 WALL, !- Surface Type
 ASHRAE 90.1-2004 ExtWall Mass ClimateZone 3-4, !- Construction Name
 0_0, !- Zone Name
 Outdoors, !- Outside Boundary Condition
 , !- Outside Boundary Condition Object
 SunExposed, !- Sun Exposure
 WindExposed, !- Wind Exposure
 autocalculate, !- View Factor to Ground
 4, !- Number of Vertices
 5.54996395111084,
 -2.4735398292541504,
 0.0,
 7.395345687866211,
 1.0753425359725952,
 0.0,
 9.013625144958496,
 1.5863926410675049,
 4.0,
 6.061014175415039,
 -4.0918192863464355,
 4.0;


FenestrationSurface:Detailed,
 0_0_2_glz_0_0, !- Name
 WINDOW, !- Surface Type
 ASHRAE 90.1-2004 ExtWindow ClimateZone 4-6, !- Construction Name
 0_0_2, !- Surface Name
 , !- Outside Boundary Condition Object
 autocalculate, !- View Factor to Ground
 , !- Shading Control Name
 , !- Frame and Divider Name
 1, !- Multiplier
 4, !- Number of Vertices
 6.099800109863281,
 -1.9309189319610596,
 0.79163426160812378,
 7.2669219970703125,
 0.31359139084815979,
 0.79163426160812378,
 8.290411949157715,
 0.63680791854858398,
 3.3214564323425293,
 6.423016548156738,
 -2.954408645629883,
 3.3214564323425293;


BuildingSurface:Detailed,
 0_0_3, !- Name
 WALL, !- Surface Type
 ASHRAE 90.1-2004 ExtWall Mass ClimateZone 3-4, !- Construction Name
 0_0, !- Zone Name
 Outdoors, !- Outside Boundary Condition
 , !- Outside Boundary Condition Object
 SunExposed, !- Sun Exposure
 WindExposed, !- Wind Exposure
 autocalculate, !- View Factor to Ground
 4, !- Number of Vertices
 2.0010814666748047,
 -0.62815815210342407,
 0.0,
 5.54996395111084,
 -2.4735398292541504,
 0.0,
 6.061014175415039,
 -4.0918192863464355,
 4.0,
 0.38280221819877625,
 -1.1392083168029785,
 4.0;


BuildingSurface:Detailed,
 0_0_4, !- Name
 WALL, !- Surface Type
 ASHRAE 90.1-2004 ExtWall Mass ClimateZone 3-4, !- Construction Name
 0_0, !- Zone Name
 Outdoors, !- Outside Boundary Condition
 , !- Outside Boundary Condition Object
 SunExposed, !- Sun Exposure
 WindExposed, !- Wind Exposure
 autocalculate, !- View Factor to Ground
 5, !- Number of Vertices
 3.846463203430176,
 2.9207241535186768,
 0.0,
 2.0010814666748047,
 -0.62815815210342407,
 0.0,
 0.78737205266952515,
 -1.0114457607269287,
 3.0,
 0.38280221819877625,
 -1.1392083168029785,
 4.0,
 3.3354129791259766,
 4.539003372192383,
 4.0;


FenestrationSurface:Detailed,
 0_0_4_glz_0_0, !- Name
 WINDOW, !- Surface Type
 ASHRAE 90.1-2004 ExtWindow ClimateZone 4-6, !- Construction Name
 0_0_4, !- Surface Name
 , !- Outside Boundary Condition Object
 autocalculate, !- View Factor to Ground
 , !- Shading Control Name
 , !- Frame and Divider Name
 1, !- Multiplier
 4, !- Number of Vertices
 3.2966270446777344,
 2.378103256225586,
 0.79163426160812378,
 2.129505157470703,
 0.13359293341636658,
 0.79163426160812378,
 1.1060154438018799,
 -0.18962359428405762,
 3.3214564323425293,
 2.9734106063842773,
 3.401592969894409,
 3.3214564323425293;


BuildingSurface:Detailed,
 0_0_5, !- Name
 WALL, !- Surface Type
 ASHRAE 90.1-2004 ExtWall Mass ClimateZone 3-4, !- Construction Name
 0_0, !- Zone Name
 Outdoors, !- Outside Boundary Condition
 , !- Outside Boundary Condition Object
 SunExposed, !- Sun Exposure
 WindExposed, !- Wind Exposure
 autocalculate, !- View Factor to Ground
 4, !- Number of Vertices
 7.395345687866211,
 1.0753425359725952,
 0.0,
 3.846463203430176,
 2.9207241535186768,
 0.0,
 3.3354129791259766,
 4.539003372192383,
 4.0,
 9.013625144958496,
 1.5863926410675049,
 4.0;


FenestrationSurface:Detailed,
 0_0_5_glz_0_0, !- Name
 WINDOW, !- Surface Type
 ASHRAE 90.1-2004 ExtWindow ClimateZone 4-6, !- Construction Name
 0_0_5, !- Surface Name
 , !- Outside Boundary Condition Object
 autocalculate, !- View Factor to Ground
 , !- Shading Control Name
 , !- Frame and Divider Name
 1, !- Multiplier
 4, !- Number of Vertices
 6.852724552154541,
 1.6251786947250366,
 0.79163426160812378,
 4.608214378356934,
 2.7923004627227783,
 0.79163426160812378,
 4.284997940063477,
 3.8157901763916016,
 3.3214564323425293,
 7.876214027404785,
 1.9483952522277832,
 3.3214564323425293;


Zone,
 1_0,
 0, !-Direction of Relative North {deg}
 0.0, !- X Origin {m}
 0.0, !- Y Origin {m}
 0.0, !- Z Origin {m}
 1; !- Type

BuildingSurface:Detailed,
 1_0_0, !- Name
 FLOOR, !- Surface Type
 000 Interior Floor, !- Construction Name
 1_0, !- Zone Name
 SURFACE, !- Outside Boundary Condition
 0_0_0, !- Outside Boundary Condition Object
 NoSun, !- Sun Exposure
 NoWind, !- Wind Exposure
 autocalculate, !- View Factor to Ground
 4, !- Number of Vertices
 3.0799343585968018,
 -0.28745803236961365,
 4.0,
 4.187163352966309,
 1.8418713808059692,
 4.0,
 6.316492557525635,
 0.7346423864364624,
 4.0,
 5.209263801574707,
 -1.3946870565414429,
 4.0;


BuildingSurface:Detailed,
 1_0_1, !- Name
 CEILING, !- Surface Type
 000 Interior Ceiling, !- Construction Name
 1_0, !- Zone Name
 SURFACE, !- Outside Boundary Condition
 6_0_0, !- Outside Boundary Condition Object
 NoSun, !- Sun Exposure
 NoWind, !- Wind Exposure
 autocalculate, !- View Factor to Ground
 4, !- Number of Vertices
 1.4616550207138062,
 -0.79850822687149048,
 8.0,
 5.720314025878906,
 -3.0129663944244385,
 8.0,
 7.93477201461792,
 1.2456926107406616,
 8.0,
 3.6761131286621094,
 3.460150718688965,
 8.0;


BuildingSurface:Detailed,
 1_0_2, !- Name
 WALL, !- Surface Type
 000 Interior Wall, !- Construction Name
 1_0, !- Zone Name
 SURFACE, !- Outside Boundary Condition
 3_0_5, !- Outside Boundary Condition Object
 NoSun, !- Sun Exposure
 NoWind, !- Wind Exposure
 autocalculate, !- View Factor to Ground
 4, !- Number of Vertices
 6.316492557525635,
 0.7346423864364624,
 4.0,
 4.187163352966309,
 1.8418713808059692,
 4.0,
 3.6761131286621094,
 3.460150718688965,
 8.0,
 7.93477201461792,
 1.2456926107406616,
 8.0;


BuildingSurface:Detailed,
 1_0_3, !- Name
 WALL, !- Surface Type
 000 Interior Wall, !- Construction Name
 1_0, !- Zone Name
 SURFACE, !- Outside Boundary Condition
 4_0_5, !- Outside Boundary Condition Object
 NoSun, !- Sun Exposure
 NoWind, !- Wind Exposure
 autocalculate, !- View Factor to Ground
 4, !- Number of Vertices
 4.187163352966309,
 1.8418713808059692,
 4.0,
 3.0799343585968018,
 -0.28745803236961365,
 4.0,
 1.4616550207138062,
 -0.79850822687149048,
 8.0,
 3.6761131286621094,
 3.460150718688965,
 8.0;


BuildingSurface:Detailed,
 1_0_4, !- Name
 WALL, !- Surface Type
 000 Interior Wall, !- Construction Name
 1_0, !- Zone Name
 SURFACE, !- Outside Boundary Condition
 5_0_5, !- Outside Boundary Condition Object
 NoSun, !- Sun Exposure
 NoWind, !- Wind Exposure
 autocalculate, !- View Factor to Ground
 4, !- Number of Vertices
 3.0799343585968018,
 -0.28745803236961365,
 4.0,
 5.209263801574707,
 -1.3946870565414429,
 4.0,
 5.720314025878906,
 -3.0129663944244385,
 8.0,
 1.4616550207138062,
 -0.79850822687149048,
 8.0;


BuildingSurface:Detailed,
 1_0_5, !- Name
 WALL, !- Surface Type
 000 Interior Wall, !- Construction Name
 1_0, !- Zone Name
 SURFACE, !- Outside Boundary Condition
 2_0_5, !- Outside Boundary Condition Object
 NoSun, !- Sun Exposure
 NoWind, !- Wind Exposure
 autocalculate, !- View Factor to Ground
 4, !- Number of Vertices
 5.209263801574707,
 -1.3946870565414429,
 4.0,
 6.316492557525635,
 0.7346423864364624,
 4.0,
 7.93477201461792,
 1.2456926107406616,
 8.0,
 5.720314025878906,
 -3.0129663944244385,
 8.0;


Zone,
 2_0,
 0, !-Direction of Relative North {deg}
 0.0, !- X Origin {m}
 0.0, !- Y Origin {m}
 0.0, !- Z Origin {m}
 1; !- Type

BuildingSurface:Detailed,
 2_0_0, !- Name
 FLOOR, !- Surface Type
 ASHRAE 90.1-2004 AtticFloor ClimateZone 1-5, !- Construction Name
 2_0, !- Zone Name
 GROUND, !- Outside Boundary Condition
 , !- Outside Boundary Condition Object
 NoSun, !- Sun Exposure
 NoWind, !- Wind Exposure
 autocalculate, !- View Factor to Ground
 4, !- Number of Vertices
 5.209263801574707,
 -1.3946870565414429,
 4.0,
 6.316492557525635,
 0.7346423864364624,
 4.0,
 9.013625144958496,
 1.5863926410675049,
 4.0,
 6.061014175415039,
 -4.0918192863464355,
 4.0;


BuildingSurface:Detailed,
 2_0_1, !- Name
 CEILING, !- Surface Type
 000 Interior Ceiling, !- Construction Name
 2_0, !- Zone Name
 SURFACE, !- Outside Boundary Condition
 7_0_0, !- Outside Boundary Condition Object
 NoSun, !- Sun Exposure
 NoWind, !- Wind Exposure
 autocalculate, !- View Factor to Ground
 4, !- Number of Vertices
 6.572064399719238,
 -5.7100982666015625,
 8.0,
 10.631903648376465,
 2.097442865371704,
 8.0,
 7.93477201461792,
 1.2456926107406616,
 8.0,
 5.720314025878906,
 -3.0129663944244385,
 8.0;


BuildingSurface:Detailed,
 2_0_2, !- Name
 WALL, !- Surface Type
 000 Interior Wall, !- Construction Name
 2_0, !- Zone Name
 SURFACE, !- Outside Boundary Condition
 3_0_3, !- Outside Boundary Condition Object
 NoSun, !- Sun Exposure
 NoWind, !- Wind Exposure
 autocalculate, !- View Factor to Ground
 4, !- Number of Vertices
 9.013625144958496,
 1.5863926410675049,
 4.0,
 6.316492557525635,
 0.7346423864364624,
 4.0,
 7.93477201461792,
 1.2456926107406616,
 8.0,
 10.631903648376465,
 2.097442865371704,
 8.0;


BuildingSurface:Detailed,
 2_0_3, !- Name
 WALL, !- Surface Type
 000 Interior Wall, !- Construction Name
 2_0, !- Zone Name
 SURFACE, !- Outside Boundary Condition
 5_0_2, !- Outside Boundary Condition Object
 NoSun, !- Sun Exposure
 NoWind, !- Wind Exposure
 autocalculate, !- View Factor to Ground
 4, !- Number of Vertices
 5.209263801574707,
 -1.3946870565414429,
 4.0,
 6.061014175415039,
 -4.0918192863464355,
 4.0,
 6.572064399719238,
 -5.7100982666015625,
 8.0,
 5.720314025878906,
 -3.0129663944244385,
 8.0;


BuildingSurface:Detailed,
 2_0_4, !- Name
 WALL, !- Surface Type
 ASHRAE 90.1-2004 ExtWall Mass ClimateZone 3-4, !- Construction Name
 2_0, !- Zone Name
 Outdoors, !- Outside Boundary Condition
 , !- Outside Boundary Condition Object
 SunExposed, !- Sun Exposure
 WindExposed, !- Wind Exposure
 autocalculate, !- View Factor to Ground
 4, !- Number of Vertices
 6.061014175415039,
 -4.0918192863464355,
 4.0,
 9.013625144958496,
 1.5863926410675049,
 4.0,
 10.631903648376465,
 2.097442865371704,
 8.0,
 6.572064399719238,
 -5.7100982666015625,
 8.0;


FenestrationSurface:Detailed,
 2_0_4_glz_0_0, !- Name
 WINDOW, !- Surface Type
 ASHRAE 90.1-2004 ExtWindow ClimateZone 4-6, !- Construction Name
 2_0_4, !- Surface Name
 , !- Outside Boundary Condition Object
 autocalculate, !- View Factor to Ground
 , !- Shading Control Name
 , !- Frame and Divider Name
 1, !- Multiplier
 4, !- Number of Vertices
 6.80957555770874,
 -3.1554150581359863,
 4.773777961730957,
 8.676970481872559,
 0.43580135703086853,
 4.773777961730957,
 9.700460433959961,
 0.75901788473129272,
 7.303599834442139,
 7.132791996002197,
 -4.178905010223389,
 7.303599834442139;


BuildingSurface:Detailed,
 2_0_5, !- Name
 WALL, !- Surface Type
 000 Interior Wall, !- Construction Name
 2_0, !- Zone Name
 SURFACE, !- Outside Boundary Condition
 1_0_5, !- Outside Boundary Condition Object
 NoSun, !- Sun Exposure
 NoWind, !- Wind Exposure
 autocalculate, !- View Factor to Ground
 4, !- Number of Vertices
 6.316492557525635,
 0.7346423864364624,
 4.0,
 5.209263801574707,
 -1.3946870565414429,
 4.0,
 5.720314025878906,
 -3.0129663944244385,
 8.0,
 7.93477201461792,
 1.2456926107406616,
 8.0;


Zone,
 3_0,
 0, !-Direction of Relative North {deg}
 0.0, !- X Origin {m}
 0.0, !- Y Origin {m}
 0.0, !- Z Origin {m}
 1; !- Type

BuildingSurface:Detailed,
 3_0_0, !- Name
 FLOOR, !- Surface Type
 ASHRAE 90.1-2004 AtticFloor ClimateZone 1-5, !- Construction Name
 3_0, !- Zone Name
 GROUND, !- Outside Boundary Condition
 , !- Outside Boundary Condition Object
 NoSun, !- Sun Exposure
 NoWind, !- Wind Exposure
 autocalculate, !- View Factor to Ground
 4, !- Number of Vertices
 4.187163352966309,
 1.8418713808059692,
 4.0,
 3.3354129791259766,
 4.539003372192383,
 4.0,
 9.013625144958496,
 1.5863926410675049,
 4.0,
 6.316492557525635,
 0.7346423864364624,
 4.0;


BuildingSurface:Detailed,
 3_0_1, !- Name
 CEILING, !- Surface Type
 000 Interior Ceiling, !- Construction Name
 3_0, !- Zone Name
 SURFACE, !- Outside Boundary Condition
 8_0_0, !- Outside Boundary Condition Object
 NoSun, !- Sun Exposure
 NoWind, !- Wind Exposure
 autocalculate, !- View Factor to Ground
 4, !- Number of Vertices
 2.8243627548217773,
 6.157282829284668,
 8.0,
 3.6761131286621094,
 3.460150718688965,
 8.0,
 7.93477201461792,
 1.2456926107406616,
 8.0,
 10.631903648376465,
 2.097442865371704,
 8.0;


BuildingSurface:Detailed,
 3_0_2, !- Name
 WALL, !- Surface Type
 000 Interior Wall, !- Construction Name
 3_0, !- Zone Name
 SURFACE, !- Outside Boundary Condition
 4_0_3, !- Outside Boundary Condition Object
 NoSun, !- Sun Exposure
 NoWind, !- Wind Exposure
 autocalculate, !- View Factor to Ground
 4, !- Number of Vertices
 3.3354129791259766,
 4.539003372192383,
 4.0,
 4.187163352966309,
 1.8418713808059692,
 4.0,
 3.6761131286621094,
 3.460150718688965,
 8.0,
 2.8243627548217773,
 6.157282829284668,
 8.0;


BuildingSurface:Detailed,
 3_0_3, !- Name
 WALL, !- Surface Type
 000 Interior Wall, !- Construction Name
 3_0, !- Zone Name
 SURFACE, !- Outside Boundary Condition
 2_0_2, !- Outside Boundary Condition Object
 NoSun, !- Sun Exposure
 NoWind, !- Wind Exposure
 autocalculate, !- View Factor to Ground
 4, !- Number of Vertices
 6.316492557525635,
 0.7346423864364624,
 4.0,
 9.013625144958496,
 1.5863926410675049,
 4.0,
 10.631903648376465,
 2.097442865371704,
 8.0,
 7.93477201461792,
 1.2456926107406616,
 8.0;


BuildingSurface:Detailed,
 3_0_4, !- Name
 WALL, !- Surface Type
 ASHRAE 90.1-2004 ExtWall Mass ClimateZone 3-4, !- Construction Name
 3_0, !- Zone Name
 Outdoors, !- Outside Boundary Condition
 , !- Outside Boundary Condition Object
 SunExposed, !- Sun Exposure
 WindExposed, !- Wind Exposure
 autocalculate, !- View Factor to Ground
 4, !- Number of Vertices
 9.013625144958496,
 1.5863926410675049,
 4.0,
 3.3354129791259766,
 4.539003372192383,
 4.0,
 2.8243627548217773,
 6.157282829284668,
 8.0,
 10.631903648376465,
 2.097442865371704,
 8.0;


FenestrationSurface:Detailed,
 3_0_4_glz_0_0, !- Name
 WINDOW, !- Surface Type
 ASHRAE 90.1-2004 ExtWindow ClimateZone 4-6, !- Construction Name
 3_0_4, !- Surface Name
 , !- Outside Boundary Condition Object
 autocalculate, !- View Factor to Ground
 , !- Shading Control Name
 , !- Frame and Divider Name
 1, !- Multiplier
 4, !- Number of Vertices
 8.077220916748047,
 2.334954023361206,
 4.773777961730957,
 4.48600435256958,